opendss_networks/LV22_80bus/Switches.dss
new line.Switch_216_CLOSED lineCode=ughv_400al_triplex_ug_4w_bundled bus1=B1061 bus2=B1992 length=0.00100000000000 units=km switch=y phases=4
! new line.Switch_355_OPEN lineCode=ughv_400al_triplex_ug_4w_bundled bus1=B1879 bus2=B1189 length=0.00100000000000 units=km switch=y phases=4
new line.Switch_751_CLOSED lineCode=ughv_400al_triplex_ug_4w_bundled bus1=B3351 bus2=B2146 length=0.00100000000000 units=km switch=y phases=4
! new line.Switch_1147_OPEN lineCode=ughv_400al_triplex_ug_4w_bundled bus1=B3117 bus2=B3291 length=0.00100000000000 units=km switch=y phases=4
new line.Switch_1253_CLOSED lineCode=ughv_400al_triplex_ug_4w_bundled bus1=B722 bus2=B118 length=0.00100000000000 units=km switch=y phases=4
new line.Switch_2339_CLOSED lineCode=ughv_400al_triplex_ug_4w_bundled bus1=B2660 bus2=B3272 length=0.00100000000000 units=km switch=y phases=4
new line.Switch_2467_CLOSED lineCode=ughv_400al_triplex_ug_4w_bundled bus1=B1915 bus2=B3383 length=0.00100000000000 units=km switch=y phases=4
new line.Switch_3062_CLOSED lineCode=ughv_400al_triplex_ug_4w_bundled bus1=B2923 bus2=B3253 length=0.00100000000000 units=km switch=y phases=4
new line.Switch_3333_CLOSED lineCode=ughv_400al_triplex_ug_4w_bundled bus1=B429 bus2=B1997 length=0.00100000000000 units=km switch=y phases=4
! new line.Switch_3604_OPEN lineCode=ughv_400al_triplex_ug_4w_bundled bus1=B3115 bus2=B2608 length=0.00100000000000 units=km switch=y phases=4
! new line.Switch_4055_OPEN lineCode=ughv_400al_triplex_ug_4w_bundled bus1=B389 bus2=B365 length=0.00100000000000 units=km switch=y phases=4
new line.Switch_4468_CLOSED lineCode=ughv_400al_triplex_ug_4w_bundled bus1=B2441 bus2=B307 length=0.00100000000000 units=km switch=y phases=4
